feeders/18_SE001_1/012_cargasBT_1_1.dss
New Load.BT_1510540_M1 bus1=UC1510540.1.4 phases=1 conn=Wye model=2 kv=0.22 kw=0.233919 pf=0.92 daily=RU7_DU status=variable vmaxpu=1.5 vminpu=0.92
New Load.BT_1510540_M2 bus1=UC1510540.1.4 phases=1 conn=Wye model=3 kv=0.22 kw=0.233919 pf=0.92 daily=RU7_DU status=variable vmaxpu=1.5 vminpu=0.92
New Load.BT_1510547_M1 bus1=UC1510547.1.4 phases=1 conn=Wye model=2 kv=0.22 kw=0.4027275 pf=0.92 daily=RU1_DU status=variable vmaxpu=1.5 vminpu=0.92
New Load.BT_1510547_M2 bus1=UC1510547.1.4 phases=1 conn=Wye model=3 kv=0.22 kw=0.4027275 pf=0.92 daily=RU1_DU status=variable vmaxpu=1.5 vminpu=0.92
New Load.BT_1510546_M1 bus1=UC1510546.1.4 phases=1 conn=Wye model=2 kv=0.22 kw=0.2887055 pf=0.92 daily=RU3_DU status=variable vmaxpu=1.5 vminpu=0.92
New Load.BT_1510546_M2 bus1=UC1510546.1.4 phases=1 conn=Wye model=3 kv=0.22 kw=0.2887055 pf=0.92 daily=RU3_DU status=variable vmaxpu=1.5 vminpu=0.92
New Load.BT_2910519_M1 bus1=UC2910519.1.4 phases=1 conn=Wye model=2 kv=0.22 kw=0.003499 pf=0.92 daily=RU3_DU status=variable vmaxpu=1.5 vminpu=0.92
New Load.BT_2910519_M2 bus1=UC2910519.1.4 phases=1 conn=Wye model=3 kv=0.22 kw=0.003499 pf=0.92 daily=RU3_DU status=variable vmaxpu=1.5 vminpu=0.92
New Load.BT_2910500_M1 bus1=UC2910500.1.2.4 phases=1 conn=Delta model=2 kv=0.44 kw=4.1599005 pf=0.92 daily=RU7_DU status=variable vmaxpu=1.5 vminpu=0.92
New Load.BT_2910500_M2 bus1=UC2910500.1.2.4 phases=1 conn=Delta model=3 kv=0.44 kw=4.1599005 pf=0.92 daily=RU7_DU status=variable vmaxpu=1.5 vminpu=0.92
New Load.BT_1510543_M1 bus1=UC1510543.1.2.4 phases=1 conn=Delta model=2 kv=0.44 kw=2.3251225 pf=0.92 daily=RU1_DU status=variable vmaxpu=1.5 vminpu=0.92
New Load.BT_1510543_M2 bus1=UC1510543.1.2.4 phases=1 conn=Delta model=3 kv=0.44 kw=2.3251225 pf=0.92 daily=RU1_DU status=variable vmaxpu=1.5 vminpu=0.92
New Load.BT_1510544_M1 bus1=UC1510544.1.2.4 phases=1 conn=Delta model=2 kv=0.44 kw=0.8490665 pf=0.92 daily=RU8_DU status=variable vmaxpu=1.5 vminpu=0.92
New Load.BT_1510544_M2 bus1=UC1510544.1.2.4 phases=1 conn=Delta model=3 kv=0.44 kw=0.8490665 pf=0.92 daily=RU8_DU status=variable vmaxpu=1.5 vminpu=0.92
New Load.BT_1509722_M1 bus1=UC1509722.1.4 phases=1 conn=Wye model=2 kv=0.22 kw=0.005249 pf=0.92 daily=RU3_DU status=variable vmaxpu=1.5 vminpu=0.92
New Load.BT_1509722_M2 bus1=UC1509722.1.4 phases=1 conn=Wye model=3 kv=0.22 kw=0.005249 pf=0.92 daily=RU3_DU status=variable vmaxpu=1.5 vminpu=0.92
New Load.BT_1520984_M1 bus1=UC1520984.1.4 phases=1 conn=Wye model=2 kv=0.219393102 kw=0.3749935 pf=0.92 daily=RU7_DU status=variable vmaxpu=1.5 vminpu=0.92
New Load.BT_1520984_M2 bus1=UC1520984.1.4 phases=1 conn=Wye model=3 kv=0.219393102 kw=0.3749935 pf=0.92 daily=RU7_DU status=variable vmaxpu=1.5 vminpu=0.92
New Load.BT_1516384_M1 bus1=UC1516384.2.4 phases=1 conn=Wye model=2 kv=0.219393102 kw=0.385365 pf=0.92 daily=RU6_DU status=variable vmaxpu=1.5 vminpu=0.92
New Load.BT_1516384_M2 bus1=UC1516384.2.4 phases=1 conn=Wye model=3 kv=0.219393102 kw=0.385365 pf=0.92 daily=RU6_DU status=variable vmaxpu=1.5 vminpu=0.92
New Load.BT_1517507_M1 bus1=UC1517507.1.2.3.4 phases=3 conn=Delta model=2 kv=0.38 kw=1.2535705 pf=0.92 daily=RU6_DU status=variable vmaxpu=1.5 vminpu=0.92
New Load.BT_1517507_M2 bus1=UC1517507.1.2.3.4 phases=3 conn=Delta model=3 kv=0.38 kw=1.2535705 pf=0.92 daily=RU6_DU status=variable vmaxpu=1.5 vminpu=0.92
New Load.BT_1519249_M1 bus1=UC1519249.1.2.3.4 phases=3 conn=Delta model=2 kv=0.38 kw=1.2459385 pf=0.92 daily=RU1_DU status=variable vmaxpu=1.5 vminpu=0.92
New Load.BT_1519249_M2 bus1=UC1519249.1.2.3.4 phases=3 conn=Delta model=3 kv=0.38 kw=1.2459385 pf=0.92 daily=RU1_DU status=variable vmaxpu=1.5 vminpu=0.92
New Load.BT_1520725_M1 bus1=UC1520725.2.4 phases=1 conn=Wye model=2 kv=0.219393102 kw=0.12948 pf=0.92 daily=RU3_DU status=variable vmaxpu=1.5 vminpu=0.92
New Load.BT_1520725_M2 bus1=UC1520725.2.4 phases=1 conn=Wye model=3 kv=0.219393102 kw=0.12948 pf=0.92 daily=RU3_DU status=variable vmaxpu=1.5 vminpu=0.92
New Load.BT_533186_M1 bus1=UC533186.1.2.4 phases=1 conn=Delta model=2 kv=0.38 kw=0.4750725 pf=0.92 daily=RU7_DU status=variable vmaxpu=1.5 vminpu=0.92
New Load.BT_533186_M2 bus1=UC533186.1.2.4 phases=1 conn=Delta model=3 kv=0.38 kw=0.4750725 pf=0.92 daily=RU7_DU status=variable vmaxpu=1.5 vminpu=0.92
New Load.BT_1520971_M1 bus1=UC1520971.1.4 phases=1 conn=Wye model=2 kv=0.22 kw=0.4129365 pf=0.92 daily=RU3_DU status=variable vmaxpu=1.5 vminpu=0.92
New Load.BT_1520971_M2 bus1=UC1520971.1.4 phases=1 conn=Wye model=3 kv=0.22 kw=0.4129365 pf=0.92 daily=RU3_DU status=variable vmaxpu=1.5 vminpu=0.92
New Load.BT_1510537_M1 bus1=UC1510537.1.4 phases=1 conn=Wye model=2 kv=0.219393102 kw=0.509702 pf=0.92 daily=RU1_DU status=variable vmaxpu=1.5 vminpu=0.92
New Load.BT_1510537_M2 bus1=UC1510537.1.4 phases=1 conn=Wye model=3 kv=0.219393102 kw=0.509702 pf=0.92 daily=RU1_DU status=variable vmaxpu=1.5 vminpu=0.92
New Load.BT_1510538_M1 bus1=UC1510538.1.2.3.4 phases=3 conn=Delta model=2 kv=0.38 kw=1.1322165 pf=0.92 daily=RU7_DU status=variable vmaxpu=1.5 vminpu=0.92
New Load.BT_1510538_M2 bus1=UC1510538.1.2.3.4 phases=3 conn=Delta model=3 kv=0.38 kw=1.1322165 pf=0.92 daily=RU7_DU status=variable vmaxpu=1.5 vminpu=0.92
New Load.BT_1527452_M1 bus1=UC1527452.1.2.3.4 phases=3 conn=Delta model=2 kv=0.38 kw=0.6708155 pf=0.92 daily=RU5_DU status=variable vmaxpu=1.5 vminpu=0.92
New Load.BT_1527452_M2 bus1=UC1527452.1.2.3.4 phases=3 conn=Delta model=3 kv=0.38 kw=0.6708155 pf=0.92 daily=RU5_DU status=variable vmaxpu=1.5 vminpu=0.92
New Load.BT_2910521_M1 bus1=UC2910521.2.4 phases=1 conn=Wye model=2 kv=0.22 kw=0.580638 pf=0.92 daily=RU2_DU status=variable vmaxpu=1.5 vminpu=0.92
New Load.BT_2910521_M2 bus1=UC2910521.2.4 phases=1 conn=Wye model=3 kv=0.22 kw=0.580638 pf=0.92 daily=RU2_DU status=variable vmaxpu=1.5 vminpu=0.92
New Load.BT_1522454_M1 bus1=UC1522454.2.4 phases=1 conn=Wye model=2 kv=0.219393102 kw=0.626423 pf=0.92 daily=RU5_DU status=variable vmaxpu=1.5 vminpu=0.92
New Load.BT_1522454_M2 bus1=UC1522454.2.4 phases=1 conn=Wye model=3 kv=0.219393102 kw=0.626423 pf=0.92 daily=RU5_DU status=variable vmaxpu=1.5 vminpu=0.92
New Load.BT_1510551_M1 bus1=UC1510551.1.2.3.4 phases=3 conn=Delta model=2 kv=0.38 kw=3.0608205 pf=0.92 daily=RU2_DU status=variable vmaxpu=1.5 vminpu=0.92
New Load.BT_1510551_M2 bus1=UC1510551.1.2.3.4 phases=3 conn=Delta model=3 kv=0.38 kw=3.0608205 pf=0.92 daily=RU2_DU status=variable vmaxpu=1.5 vminpu=0.92
New Load.BT_1530153_M1 bus1=UC1530153.1.2.4 phases=1 conn=Delta model=2 kv=0.44 kw=1.3448455 pf=0.92 daily=RU2_DU status=variable vmaxpu=1.5 vminpu=0.92
New Load.BT_1530153_M2 bus1=UC1530153.1.2.4 phases=1 conn=Delta model=3 kv=0.44 kw=1.3448455 pf=0.92 daily=RU2_DU status=variable vmaxpu=1.5 vminpu=0.92
New Load.BT_1530154_M1 bus1=UC1530154.1.4 phases=1 conn=Wye model=2 kv=0.22 kw=0.708392 pf=0.92 daily=RU6_DU status=variable vmaxpu=1.5 vminpu=0.92
New Load.BT_1530154_M2 bus1=UC1530154.1.4 phases=1 conn=Wye model=3 kv=0.22 kw=0.708392 pf=0.92 daily=RU6_DU status=variable vmaxpu=1.5 vminpu=0.92
New Load.BT_1533617_M1 bus1=UC1533617.1.4 phases=1 conn=Wye model=2 kv=0.22 kw=0 pf=0.92 daily=RU3_DU status=variable vmaxpu=1.5 vminpu=0.92
New Load.BT_1533617_M2 bus1=UC1533617.1.4 phases=1 conn=Wye model=3 kv=0.22 kw=0 pf=0.92 daily=RU3_DU status=variable vmaxpu=1.5 vminpu=0.92
New Load.BT_1510539_M1 bus1=UC1510539.1.2.4 phases=1 conn=Delta model=2 kv=0.44 kw=0.649909 pf=0.92 daily=RU7_DU status=variable vmaxpu=1.5 vminpu=0.92
New Load.BT_1510539_M2 bus1=UC1510539.1.2.4 phases=1 conn=Delta model=3 kv=0.44 kw=0.649909 pf=0.92 daily=RU7_DU status=variable vmaxpu=1.5 vminpu=0.92
New Load.BT_1538552_M1 bus1=UC1538552.1.2.4 phases=1 conn=Delta model=2 kv=0.44 kw=0 pf=0.92 daily=RU4_DU status=variable vmaxpu=1.5 vminpu=0.92
New Load.BT_1538552_M2 bus1=UC1538552.1.2.4 phases=1 conn=Delta model=3 kv=0.44 kw=0 pf=0.92 daily=RU4_DU status=variable vmaxpu=1.5 vminpu=0.92
New Load.BT_1510550_M1 bus1=UC1510550.1.2.4 phases=1 conn=Delta model=2 kv=0.44 kw=0.062941 pf=0.92 daily=RU4_DU status=variable vmaxpu=1.5 vminpu=0.92
New Load.BT_1510550_M2 bus1=UC1510550.1.2.4 phases=1 conn=Delta model=3 kv=0.44 kw=0.062941 pf=0.92 daily=RU4_DU status=variable vmaxpu=1.5 vminpu=0.92
New Load.BT_1704961_M1 bus1=UC1704961.1.2.3.4 phases=3 conn=Delta model=2 kv=0.38 kw=2.458785 pf=0.92 daily=RU8_DU status=variable vmaxpu=1.5 vminpu=0.92
New Load.BT_1704961_M2 bus1=UC1704961.1.2.3.4 phases=3 conn=Delta model=3 kv=0.38 kw=2.458785 pf=0.92 daily=RU8_DU status=variable vmaxpu=1.5 vminpu=0.92
New Load.BT_1704962_M1 bus1=UC1704962.1.2.3.4 phases=3 conn=Delta model=2 kv=0.38 kw=0.812578 pf=0.92 daily=RU8_DU status=variable vmaxpu=1.5 vminpu=0.92
New Load.BT_1704962_M2 bus1=UC1704962.1.2.3.4 phases=3 conn=Delta model=3 kv=0.38 kw=0.812578 pf=0.92 daily=RU8_DU status=variable vmaxpu=1.5 vminpu=0.92
New Load.BT_1724637_M1 bus1=UC1724637.1.2.3.4 phases=3 conn=Delta model=2 kv=0.38 kw=0.7446615 pf=0.92 daily=RU6_DU status=variable vmaxpu=1.5 vminpu=0.92
New Load.BT_1724637_M2 bus1=UC1724637.1.2.3.4 phases=3 conn=Delta model=3 kv=0.38 kw=0.7446615 pf=0.92 daily=RU6_DU status=variable vmaxpu=1.5 vminpu=0.92
New Load.BT_1730737_M1 bus1=UC1730737.2.4 phases=1 conn=Wye model=2 kv=0.219393102 kw=0.317777 pf=0.92 daily=RU1_DU status=variable vmaxpu=1.5 vminpu=0.92
New Load.BT_1730737_M2 bus1=UC1730737.2.4 phases=1 conn=Wye model=3 kv=0.219393102 kw=0.317777 pf=0.92 daily=RU1_DU status=variable vmaxpu=1.5 vminpu=0.92
New Load.BT_1736495_M1 bus1=BT772861.1.2.3.4 phases=3 conn=Delta model=2 kv=0.38 kw=0.0478875 pf=0.92 daily=RU2_DU status=variable vmaxpu=1.5 vminpu=0.92
New Load.BT_1736495_M2 bus1=BT772861.1.2.3.4 phases=3 conn=Delta model=3 kv=0.38 kw=0.0478875 pf=0.92 daily=RU2_DU status=variable vmaxpu=1.5 vminpu=0.92
New Load.BT_1735046_M1 bus1=UC1735046.1.4 phases=1 conn=Wye model=2 kv=0.22 kw=0.2315635 pf=0.92 daily=RU8_DU status=variable vmaxpu=1.5 vminpu=0.92
New Load.BT_1735046_M2 bus1=UC1735046.1.4 phases=1 conn=Wye model=3 kv=0.22 kw=0.2315635 pf=0.92 daily=RU8_DU status=variable vmaxpu=1.5 vminpu=0.92
New Load.BT_1705070_M1 bus1=UC1705070.1.4 phases=1 conn=Wye model=2 kv=0.22 kw=0.6290285 pf=0.92 daily=RU3_DU status=variable vmaxpu=1.5 vminpu=0.92
New Load.BT_1705070_M2 bus1=UC1705070.1.4 phases=1 conn=Wye model=3 kv=0.22 kw=0.6290285 pf=0.92 daily=RU3_DU status=variable vmaxpu=1.5 vminpu=0.92
New Load.BT_1722092_M1 bus1=UC1722092.1.4 phases=1 conn=Wye model=2 kv=0.22 kw=0.2379915 pf=0.92 daily=RU5_DU status=variable vmaxpu=1.5 vminpu=0.92
New Load.BT_1722092_M2 bus1=UC1722092.1.4 phases=1 conn=Wye model=3 kv=0.22 kw=0.2379915 pf=0.92 daily=RU5_DU status=variable vmaxpu=1.5 vminpu=0.92
New Load.BT_1704824_M1 bus1=UC1704824.2.4 phases=1 conn=Wye model=2 kv=0.22 kw=0.6904805 pf=0.92 daily=RU8_DU status=variable vmaxpu=1.5 vminpu=0.92
New Load.BT_1704824_M2 bus1=UC1704824.2.4 phases=1 conn=Wye model=3 kv=0.22 kw=0.6904805 pf=0.92 daily=RU8_DU status=variable vmaxpu=1.5 vminpu=0.92
New Load.BT_1704950_M1 bus1=UC1704950.2.4 phases=1 conn=Wye model=2 kv=0.22 kw=0.273156 pf=0.92 daily=RU6_DU status=variable vmaxpu=1.5 vminpu=0.92
New Load.BT_1704950_M2 bus1=UC1704950.2.4 phases=1 conn=Wye model=3 kv=0.22 kw=0.273156 pf=0.92 daily=RU6_DU status=variable vmaxpu=1.5 vminpu=0.92
New Load.BT_1723966_M1 bus1=UC1723966.1.4 phases=1 conn=Wye model=2 kv=0.22 kw=0.3114845 pf=0.92 daily=RU1_DU status=variable vmaxpu=1.5 vminpu=0.92
New Load.BT_1723966_M2 bus1=UC1723966.1.4 phases=1 conn=Wye model=3 kv=0.22 kw=0.3114845 pf=0.92 daily=RU1_DU status=variable vmaxpu=1.5 vminpu=0.92
New Load.BT_1705000_M1 bus1=UC1705000.2.4 phases=1 conn=Wye model=2 kv=0.22 kw=0.2281265 pf=0.92 daily=RU5_DU status=variable vmaxpu=1.5 vminpu=0.92
New Load.BT_1705000_M2 bus1=UC1705000.2.4 phases=1 conn=Wye model=3 kv=0.22 kw=0.2281265 pf=0.92 daily=RU5_DU status=variable vmaxpu=1.5 vminpu=0.92
New Load.BT_1727795_M1 bus1=UC1727795.1.4 phases=1 conn=Wye model=2 kv=0.22 kw=0.065355 pf=0.92 daily=RU5_DU status=variable vmaxpu=1.5 vminpu=0.92
New Load.BT_1727795_M2 bus1=UC1727795.1.4 phases=1 conn=Wye model=3 kv=0.22 kw=0.065355 pf=0.92 daily=RU5_DU status=variable vmaxpu=1.5 vminpu=0.92
New Load.BT_1727815_M1 bus1=UC1727815.1.4 phases=1 conn=Wye model=2 kv=0.22 kw=0.2198845 pf=0.92 daily=RU6_DU status=variable vmaxpu=1.5 vminpu=0.92
New Load.BT_1727815_M2 bus1=UC1727815.1.4 phases=1 conn=Wye model=3 kv=0.22 kw=0.2198845 pf=0.92 daily=RU6_DU status=variable vmaxpu=1.5 vminpu=0.92
New Load.BT_1704966_M1 bus1=UC1704966.1.2.3.4 phases=3 conn=Delta model=2 kv=0.38 kw=4.8954195 pf=0.92 daily=RU7_DU status=variable vmaxpu=1.5 vminpu=0.92
New Load.BT_1704966_M2 bus1=UC1704966.1.2.3.4 phases=3 conn=Delta model=3 kv=0.38 kw=4.8954195 pf=0.92 daily=RU7_DU status=variable vmaxpu=1.5 vminpu=0.92
New Load.BT_1709707_M1 bus1=UC1709707.1.4 phases=1 conn=Wye model=2 kv=0.219393102 kw=1.416677 pf=0.92 daily=RU2_DU status=variable vmaxpu=1.5 vminpu=0.92
New Load.BT_1709707_M2 bus1=UC1709707.1.4 phases=1 conn=Wye model=3 kv=0.219393102 kw=1.416677 pf=0.92 daily=RU2_DU status=variable vmaxpu=1.5 vminpu=0.92
New Load.BT_1704954_M1 bus1=UC1704954.2.4 phases=1 conn=Wye model=2 kv=0.219393102 kw=0.0012055 pf=0.92 daily=RU7_DU status=variable vmaxpu=1.5 vminpu=0.92
New Load.BT_1704954_M2 bus1=UC1704954.2.4 phases=1 conn=Wye model=3 kv=0.219393102 kw=0.0012055 pf=0.92 daily=RU7_DU status=variable vmaxpu=1.5 vminpu=0.92
New Load.BT_1704955_M1 bus1=UC1704955.1.4 phases=1 conn=Wye model=2 kv=0.219393102 kw=0.3440395 pf=0.92 daily=RU5_DU status=variable vmaxpu=1.5 vminpu=0.92
New Load.BT_1704955_M2 bus1=UC1704955.1.4 phases=1 conn=Wye model=3 kv=0.219393102 kw=0.3440395 pf=0.92 daily=RU5_DU status=variable vmaxpu=1.5 vminpu=0.92
New Load.BT_1704956_M1 bus1=UC1704956.1.2.3.4 phases=3 conn=Delta model=2 kv=0.38 kw=0.8687145 pf=0.92 daily=RU8_DU status=variable vmaxpu=1.5 vminpu=0.92
New Load.BT_1704956_M2 bus1=UC1704956.1.2.3.4 phases=3 conn=Delta model=3 kv=0.38 kw=0.8687145 pf=0.92 daily=RU8_DU status=variable vmaxpu=1.5 vminpu=0.92
New Load.BT_1737257_M1 bus1=UC1737257.1.2.3.4 phases=3 conn=Delta model=2 kv=0.38 kw=0.99738 pf=0.92 daily=RU1_DU status=variable vmaxpu=1.5 vminpu=0.92
New Load.BT_1737257_M2 bus1=UC1737257.1.2.3.4 phases=3 conn=Delta model=3 kv=0.38 kw=0.99738 pf=0.92 daily=RU1_DU status=variable vmaxpu=1.5 vminpu=0.92
New Load.BT_1738052_M1 bus1=UC1738052.1.2.3.4 phases=3 conn=Delta model=2 kv=0.38 kw=0.0216355 pf=0.92 daily=RU4_DU status=variable vmaxpu=1.5 vminpu=0.92
New Load.BT_1738052_M2 bus1=UC1738052.1.2.3.4 phases=3 conn=Delta model=3 kv=0.38 kw=0.0216355 pf=0.92 daily=RU4_DU status=variable vmaxpu=1.5 vminpu=0.92
New Load.BT_1704858_M1 bus1=UC1704858.1.2.4 phases=1 conn=Delta model=2 kv=0.44 kw=0.52251 pf=0.92 daily=RU6_DU status=variable vmaxpu=1.5 vminpu=0.92
New Load.BT_1704858_M2 bus1=UC1704858.1.2.4 phases=1 conn=Delta model=3 kv=0.44 kw=0.52251 pf=0.92 daily=RU6_DU status=variable vmaxpu=1.5 vminpu=0.92
New Load.BT_1824265_M1 bus1=UC1824265.1.2.4 phases=1 conn=Delta model=2 kv=0.44 kw=2.064425 pf=0.92 daily=RU8_DU status=variable vmaxpu=1.5 vminpu=0.92
New Load.BT_1824265_M2 bus1=UC1824265.1.2.4 phases=1 conn=Delta model=3 kv=0.44 kw=2.064425 pf=0.92 daily=RU8_DU status=variable vmaxpu=1.5 vminpu=0.92
New Load.BT_1704901_M1 bus1=UC1704901.1.2.4 phases=1 conn=Delta model=2 kv=0.44 kw=0.3031895 pf=0.92 daily=RE7_DU status=variable vmaxpu=1.5 vminpu=0.92
New Load.BT_1704901_M2 bus1=UC1704901.1.2.4 phases=1 conn=Delta model=3 kv=0.44 kw=0.3031895 pf=0.92 daily=RE7_DU status=variable vmaxpu=1.5 vminpu=0.92
New Load.BT_1719231_M1 bus1=UC1719231.1.4 phases=1 conn=Wye model=2 kv=0.22 kw=0.551146 pf=0.92 daily=RE6_DU status=variable vmaxpu=1.5 vminpu=0.92
New Load.BT_1719231_M2 bus1=UC1719231.1.4 phases=1 conn=Wye model=3 kv=0.22 kw=0.551146 pf=0.92 daily=RE6_DU status=variable vmaxpu=1.5 vminpu=0.92
New Load.BT_1728117_M1 bus1=UC1728117.2.4 phases=1 conn=Wye model=2 kv=0.22 kw=0.3199785 pf=0.92 daily=RU8_DU status=variable vmaxpu=1.5 vminpu=0.92
New Load.BT_1728117_M2 bus1=UC1728117.2.4 phases=1 conn=Wye model=3 kv=0.22 kw=0.3199785 pf=0.92 daily=RU8_DU status=variable vmaxpu=1.5 vminpu=0.92
New Load.BT_1727265_M1 bus1=UC1727265.1.4 phases=1 conn=Wye model=2 kv=0.22 kw=0.5078595 pf=0.92 daily=RE3_DU status=variable vmaxpu=1.5 vminpu=0.92
New Load.BT_1727265_M2 bus1=UC1727265.1.4 phases=1 conn=Wye model=3 kv=0.22 kw=0.5078595 pf=0.92 daily=RE3_DU status=variable vmaxpu=1.5 vminpu=0.92
New Load.BT_1725094_M1 bus1=UC1725094.2.4 phases=1 conn=Wye model=2 kv=0.22 kw=0.6853715 pf=0.92 daily=RE7_DU status=variable vmaxpu=1.5 vminpu=0.92
New Load.BT_1725094_M2 bus1=UC1725094.2.4 phases=1 conn=Wye model=3 kv=0.22 kw=0.6853715 pf=0.92 daily=RE7_DU status=variable vmaxpu=1.5 vminpu=0.92
New Load.BT_1729950_M1 bus1=UC1729950.1.4 phases=1 conn=Wye model=2 kv=0.22 kw=0.191549 pf=0.92 daily=RU6_DU status=variable vmaxpu=1.5 vminpu=0.92
New Load.BT_1729950_M2 bus1=UC1729950.1.4 phases=1 conn=Wye model=3 kv=0.22 kw=0.191549 pf=0.92 daily=RU6_DU status=variable vmaxpu=1.5 vminpu=0.92
New Load.BT_1704819_M1 bus1=UC1704819.2.4 phases=1 conn=Wye model=2 kv=0.22 kw=0.715742 pf=0.92 daily=RU8_DU status=variable vmaxpu=1.5 vminpu=0.92
New Load.BT_1704819_M2 bus1=UC1704819.2.4 phases=1 conn=Wye model=3 kv=0.22 kw=0.715742 pf=0.92 daily=RU8_DU status=variable vmaxpu=1.5 vminpu=0.92
New Load.BT_1704821_M1 bus1=UC1704821.1.4 phases=1 conn=Wye model=2 kv=0.22 kw=0.3255925 pf=0.92 daily=RU8_DU status=variable vmaxpu=1.5 vminpu=0.92
New Load.BT_1704821_M2 bus1=UC1704821.1.4 phases=1 conn=Wye model=3 kv=0.22 kw=0.3255925 pf=0.92 daily=RU8_DU status=variable vmaxpu=1.5 vminpu=0.92
New Load.BT_1704822_M1 bus1=UC1704822.1.4 phases=1 conn=Wye model=2 kv=0.22 kw=0.833772 pf=0.92 daily=RU1_DU status=variable vmaxpu=1.5 vminpu=0.92
New Load.BT_1704822_M2 bus1=UC1704822.1.4 phases=1 conn=Wye model=3 kv=0.22 kw=0.833772 pf=0.92 daily=RU1_DU status=variable vmaxpu=1.5 vminpu=0.92
New Load.BT_1704823_M1 bus1=UC1704823.2.4 phases=1 conn=Wye model=2 kv=0.22 kw=0.2346195 pf=0.92 daily=RU6_DU status=variable vmaxpu=1.5 vminpu=0.92
New Load.BT_1704823_M2 bus1=UC1704823.2.4 phases=1 conn=Wye model=3 kv=0.22 kw=0.2346195 pf=0.92 daily=RU6_DU status=variable vmaxpu=1.5 vminpu=0.92
New Load.BT_1736703_M1 bus1=UC1736703.2.4 phases=1 conn=Wye model=2 kv=0.22 kw=0.0692185 pf=0.92 daily=RU1_DU status=variable vmaxpu=1.5 vminpu=0.92
New Load.BT_1736703_M2 bus1=UC1736703.2.4 phases=1 conn=Wye model=3 kv=0.22 kw=0.0692185 pf=0.92 daily=RU1_DU status=variable vmaxpu=1.5 vminpu=0.92
New Load.BT_1723982_M1 bus1=UC1723982.1.2.3.4 phases=3 conn=Delta model=2 kv=0.38 kw=1.7699875 pf=0.92 daily=CO3_DU status=variable vmaxpu=1.5 vminpu=0.92
New Load.BT_1723982_M2 bus1=UC1723982.1.2.3.4 phases=3 conn=Delta model=3 kv=0.38 kw=1.7699875 pf=0.92 daily=CO3_DU status=variable vmaxpu=1.5 vminpu=0.92
New Load.BT_1704963_M1 bus1=UC1704963.1.4 phases=1 conn=Wye model=2 kv=0.22 kw=0.350854 pf=0.92 daily=RU8_DU status=variable vmaxpu=1.5 vminpu=0.92
New Load.BT_1704963_M2 bus1=UC1704963.1.4 phases=1 conn=Wye model=3 kv=0.22 kw=0.350854 pf=0.92 daily=RU8_DU status=variable vmaxpu=1.5 vminpu=0.92
New Load.BT_1704964_M1 bus1=UC1704964.1.4 phases=1 conn=Wye model=2 kv=0.22 kw=0.7841605 pf=0.92 daily=RU2_DU status=variable vmaxpu=1.5 vminpu=0.92
New Load.BT_1704964_M2 bus1=UC1704964.1.4 phases=1 conn=Wye model=3 kv=0.22 kw=0.7841605 pf=0.92 daily=RU2_DU status=variable vmaxpu=1.5 vminpu=0.92
New Load.BT_1824916_M1 bus1=UC1824916.2.4 phases=1 conn=Wye model=2 kv=0.22 kw=0.3157685 pf=0.92 daily=RU8_DU status=variable vmaxpu=1.5 vminpu=0.92
New Load.BT_1824916_M2 bus1=UC1824916.2.4 phases=1 conn=Wye model=3 kv=0.22 kw=0.3157685 pf=0.92 daily=RU8_DU status=variable vmaxpu=1.5 vminpu=0.92
New Load.BT_1704837_M1 bus1=UC1704837.3.4 phases=1 conn=Wye model=2 kv=0.219393102 kw=0.1793395 pf=0.92 daily=RU1_DU status=variable vmaxpu=1.5 vminpu=0.92
New Load.BT_1704837_M2 bus1=UC1704837.3.4 phases=1 conn=Wye model=3 kv=0.219393102 kw=0.1793395 pf=0.92 daily=RU1_DU status=variable vmaxpu=1.5 vminpu=0.92
New Load.BT_1719734_M1 bus1=UC1719734.2.4 phases=1 conn=Wye model=2 kv=0.219393102 kw=0.5167875 pf=0.92 daily=RU2_DU status=variable vmaxpu=1.5 vminpu=0.92
New Load.BT_1719734_M2 bus1=UC1719734.2.4 phases=1 conn=Wye model=3 kv=0.219393102 kw=0.5167875 pf=0.92 daily=RU2_DU status=variable vmaxpu=1.5 vminpu=0.92
New Load.BT_1720178_M1 bus1=UC1720178.2.4 phases=1 conn=Wye model=2 kv=0.219393102 kw=0.3633985 pf=0.92 daily=RU1_DU status=variable vmaxpu=1.5 vminpu=0.92
New Load.BT_1720178_M2 bus1=UC1720178.2.4 phases=1 conn=Wye model=3 kv=0.219393102 kw=0.3633985 pf=0.92 daily=RU1_DU status=variable vmaxpu=1.5 vminpu=0.92
New Load.BT_1716255_M1 bus1=UC1716255.1.4 phases=1 conn=Wye model=2 kv=0.219393102 kw=0.5329495 pf=0.92 daily=RU7_DU status=variable vmaxpu=1.5 vminpu=0.92
New Load.BT_1716255_M2 bus1=UC1716255.1.4 phases=1 conn=Wye model=3 kv=0.219393102 kw=0.5329495 pf=0.92 daily=RU7_DU status=variable vmaxpu=1.5 vminpu=0.92
New Load.BT_1729972_M1 bus1=UC1729972.3.4 phases=1 conn=Wye model=2 kv=0.219393102 kw=0.1038525 pf=0.92 daily=RU8_DU status=variable vmaxpu=1.5 vminpu=0.92
New Load.BT_1729972_M2 bus1=UC1729972.3.4 phases=1 conn=Wye model=3 kv=0.219393102 kw=0.1038525 pf=0.92 daily=RU8_DU status=variable vmaxpu=1.5 vminpu=0.92
New Load.BT_1731185_M1 bus1=UC1731185.2.4 phases=1 conn=Wye model=2 kv=0.219393102 kw=0.3687015 pf=0.92 daily=RU5_DU status=variable vmaxpu=1.5 vminpu=0.92
New Load.BT_1731185_M2 bus1=UC1731185.2.4 phases=1 conn=Wye model=3 kv=0.219393102 kw=0.3687015 pf=0.92 daily=RU5_DU status=variable vmaxpu=1.5 vminpu=0.92
New Load.BT_1727290_M1 bus1=UC1727290.3.4 phases=1 conn=Wye model=2 kv=0.219393102 kw=0.1177235 pf=0.92 daily=RU2_DU status=variable vmaxpu=1.5 vminpu=0.92
New Load.BT_1727290_M2 bus1=UC1727290.3.4 phases=1 conn=Wye model=3 kv=0.219393102 kw=0.1177235 pf=0.92 daily=RU2_DU status=variable vmaxpu=1.5 vminpu=0.92
New Load.BT_1736961_M1 bus1=UC1736961.3.4 phases=1 conn=Wye model=2 kv=0.219393102 kw=0.007981 pf=0.92 daily=RU2_DU status=variable vmaxpu=1.5 vminpu=0.92
New Load.BT_1736961_M2 bus1=UC1736961.3.4 phases=1 conn=Wye model=3 kv=0.219393102 kw=0.007981 pf=0.92 daily=RU2_DU status=variable vmaxpu=1.5 vminpu=0.92
New Load.BT_1739086_M1 bus1=UC1739086.3.4 phases=1 conn=Wye model=2 kv=0.219393102 kw=0 pf=0.92 daily=CO4_DU status=variable vmaxpu=1.5 vminpu=0.92
New Load.BT_1739086_M2 bus1=UC1739086.3.4 phases=1 conn=Wye model=3 kv=0.219393102 kw=0 pf=0.92 daily=CO4_DU status=variable vmaxpu=1.5 vminpu=0.92
New Load.BT_1735731_M1 bus1=UC1735731.1.4 phases=1 conn=Wye model=2 kv=0.219393102 kw=0.2773335 pf=0.92 daily=RU4_DU status=variable vmaxpu=1.5 vminpu=0.92
New Load.BT_1735731_M2 bus1=UC1735731.1.4 phases=1 conn=Wye model=3 kv=0.219393102 kw=0.2773335 pf=0.92 daily=RU4_DU status=variable vmaxpu=1.5 vminpu=0.92
New Load.BT_1732067_M1 bus1=UC1732067.2.4 phases=1 conn=Wye model=2 kv=0.219393102 kw=0.3850965 pf=0.92 daily=RU2_DU status=variable vmaxpu=1.5 vminpu=0.92
New Load.BT_1732067_M2 bus1=UC1732067.2.4 phases=1 conn=Wye model=3 kv=0.219393102 kw=0.3850965 pf=0.92 daily=RU2_DU status=variable vmaxpu=1.5 vminpu=0.92
New Load.BT_1735221_M1 bus1=UC1735221.1.2.3.4 phases=3 conn=Delta model=2 kv=0.38 kw=0.1810405 pf=0.92 daily=RU8_DU status=variable vmaxpu=1.5 vminpu=0.92
New Load.BT_1735221_M2 bus1=UC1735221.1.2.3.4 phases=3 conn=Delta model=3 kv=0.38 kw=0.1810405 pf=0.92 daily=RU8_DU status=variable vmaxpu=1.5 vminpu=0.92
New Load.BT_1725098_M1 bus1=UC1725098.1.2.3.4 phases=3 conn=Delta model=2 kv=0.38 kw=1.4693265 pf=0.92 daily=RU1_DU status=variable vmaxpu=1.5 vminpu=0.92
New Load.BT_1725098_M2 bus1=UC1725098.1.2.3.4 phases=3 conn=Delta model=3 kv=0.38 kw=1.4693265 pf=0.92 daily=RU1_DU status=variable vmaxpu=1.5 vminpu=0.92
New Load.BT_1716380_M1 bus1=UC1716380.1.2.3.4 phases=3 conn=Delta model=2 kv=0.38 kw=0.3650025 pf=0.92 daily=RU5_DU status=variable vmaxpu=1.5 vminpu=0.92
New Load.BT_1716380_M2 bus1=UC1716380.1.2.3.4 phases=3 conn=Delta model=3 kv=0.38 kw=0.3650025 pf=0.92 daily=RU5_DU status=variable vmaxpu=1.5 vminpu=0.92
New Load.BT_1719286_M1 bus1=UC1719286.1.4 phases=1 conn=Wye model=2 kv=0.219393102 kw=0.1880995 pf=0.92 daily=RU7_DU status=variable vmaxpu=1.5 vminpu=0.92
New Load.BT_1719286_M2 bus1=UC1719286.1.4 phases=1 conn=Wye model=3 kv=0.219393102 kw=0.1880995 pf=0.92 daily=RU7_DU status=variable vmaxpu=1.5 vminpu=0.92
New Load.BT_1723258_M1 bus1=UC1723258.1.4 phases=1 conn=Wye model=2 kv=0.219393102 kw=0.3999735 pf=0.92 daily=RU8_DU status=variable vmaxpu=1.5 vminpu=0.92
New Load.BT_1723258_M2 bus1=UC1723258.1.4 phases=1 conn=Wye model=3 kv=0.219393102 kw=0.3999735 pf=0.92 daily=RU8_DU status=variable vmaxpu=1.5 vminpu=0.92
New Load.BT_1704957_M1 bus1=UC1704957.3.4 phases=1 conn=Wye model=2 kv=0.219393102 kw=0.396314 pf=0.92 daily=RU3_DU status=variable vmaxpu=1.5 vminpu=0.92
New Load.BT_1704957_M2 bus1=UC1704957.3.4 phases=1 conn=Wye model=3 kv=0.219393102 kw=0.396314 pf=0.92 daily=RU3_DU status=variable vmaxpu=1.5 vminpu=0.92
New Load.BT_1704958_M1 bus1=UC1704958.1.2.3.4 phases=3 conn=Delta model=2 kv=0.38 kw=0.4851065 pf=0.92 daily=RU6_DU status=variable vmaxpu=1.5 vminpu=0.92
New Load.BT_1704958_M2 bus1=UC1704958.1.2.3.4 phases=3 conn=Delta model=3 kv=0.38 kw=0.4851065 pf=0.92 daily=RU6_DU status=variable vmaxpu=1.5 vminpu=0.92
New Load.BT_1704959_M1 bus1=UC1704959.2.4 phases=1 conn=Wye model=2 kv=0.219393102 kw=0.139342 pf=0.92 daily=RU5_DU status=variable vmaxpu=1.5 vminpu=0.92
New Load.BT_1704959_M2 bus1=UC1704959.2.4 phases=1 conn=Wye model=3 kv=0.219393102 kw=0.139342 pf=0.92 daily=RU5_DU status=variable vmaxpu=1.5 vminpu=0.92
New Load.BT_1704827_M1 bus1=UC1704827.1.4 phases=1 conn=Wye model=2 kv=0.219393102 kw=0.2833555 pf=0.92 daily=RU7_DU status=variable vmaxpu=1.5 vminpu=0.92
New Load.BT_1704827_M2 bus1=UC1704827.1.4 phases=1 conn=Wye model=3 kv=0.219393102 kw=0.2833555 pf=0.92 daily=RU7_DU status=variable vmaxpu=1.5 vminpu=0.92
New Load.BT_1704828_M1 bus1=UC1704828.2.4 phases=1 conn=Wye model=2 kv=0.219393102 kw=0.242553 pf=0.92 daily=RU6_DU status=variable vmaxpu=1.5 vminpu=0.92
New Load.BT_1704828_M2 bus1=UC1704828.2.4 phases=1 conn=Wye model=3 kv=0.219393102 kw=0.242553 pf=0.92 daily=RU6_DU status=variable vmaxpu=1.5 vminpu=0.92
New Load.BT_1704814_M1 bus1=UC1704814.1.2.4 phases=1 conn=Delta model=2 kv=0.38 kw=0.260943 pf=0.92 daily=CO7_DU status=variable vmaxpu=1.5 vminpu=0.92
New Load.BT_1704814_M2 bus1=UC1704814.1.2.4 phases=1 conn=Delta model=3 kv=0.38 kw=0.260943 pf=0.92 daily=CO7_DU status=variable vmaxpu=1.5 vminpu=0.92
New Load.BT_1728300_M1 bus1=UC1728300.2.4 phases=1 conn=Wye model=2 kv=0.219393102 kw=0.272083 pf=0.92 daily=RU3_DU status=variable vmaxpu=1.5 vminpu=0.92
New Load.BT_1728300_M2 bus1=UC1728300.2.4 phases=1 conn=Wye model=3 kv=0.219393102 kw=0.272083 pf=0.92 daily=RU3_DU status=variable vmaxpu=1.5 vminpu=0.92
New Load.BT_1732806_M1 bus1=UC1732806.1.2.3.4 phases=3 conn=Delta model=2 kv=0.38 kw=0.0173045 pf=0.92 daily=RU1_DU status=variable vmaxpu=1.5 vminpu=0.92
New Load.BT_1732806_M2 bus1=UC1732806.1.2.3.4 phases=3 conn=Delta model=3 kv=0.38 kw=0.0173045 pf=0.92 daily=RU1_DU status=variable vmaxpu=1.5 vminpu=0.92
New Load.BT_1738805_M1 bus1=UC1738805.1.2.3.4 phases=3 conn=Delta model=2 kv=0.38 kw=0 pf=0.92 daily=RE6_DU status=variable vmaxpu=1.5 vminpu=0.92
New Load.BT_1738805_M2 bus1=UC1738805.1.2.3.4 phases=3 conn=Delta model=3 kv=0.38 kw=0 pf=0.92 daily=RE6_DU status=variable vmaxpu=1.5 vminpu=0.92
New Load.BT_1738013_M1 bus1=UC1738013.1.2.3.4 phases=3 conn=Delta model=2 kv=0.38 kw=1.2787095 pf=0.92 daily=CO3_DU status=variable vmaxpu=1.5 vminpu=0.92
New Load.BT_1738013_M2 bus1=UC1738013.1.2.3.4 phases=3 conn=Delta model=3 kv=0.38 kw=1.2787095 pf=0.92 daily=CO3_DU status=variable vmaxpu=1.5 vminpu=0.92
New Load.BT_IP983_M1 bus1=BT245081.1.4 phases=1 conn=Wye model=2 kv=0.219393102 kw=0.0801295 pf=0.92 daily=IP1_DU status=variable vmaxpu=1.5 vminpu=0.92
New Load.BT_IP983_M2 bus1=BT245081.1.4 phases=1 conn=Wye model=3 kv=0.219393102 kw=0.0801295 pf=0.92 daily=IP1_DU status=variable vmaxpu=1.5 vminpu=0.92
New Load.BT_IP984_M1 bus1=BT245071.1.4 phases=1 conn=Wye model=2 kv=0.219393102 kw=0.130187 pf=0.92 daily=IP1_DU status=variable vmaxpu=1.5 vminpu=0.92
New Load.BT_IP984_M2 bus1=BT245071.1.4 phases=1 conn=Wye model=3 kv=0.219393102 kw=0.130187 pf=0.92 daily=IP1_DU status=variable vmaxpu=1.5 vminpu=0.92
New Load.BT_1729351_M1 bus1=UC1729351.1.4 phases=1 conn=Wye model=2 kv=0.219393102 kw=0.764143 pf=0.92 daily=RU4_DU status=variable vmaxpu=1.5 vminpu=0.92
New Load.BT_1729351_M2 bus1=UC1729351.1.4 phases=1 conn=Wye model=3 kv=0.219393102 kw=0.764143 pf=0.92 daily=RU4_DU status=variable vmaxpu=1.5 vminpu=0.92
New Load.BT_1729694_M1 bus1=UC1729694.1.2.3.4 phases=3 conn=Delta model=2 kv=0.38 kw=0.6906145 pf=0.92 daily=RU1_DU status=variable vmaxpu=1.5 vminpu=0.92
New Load.BT_1729694_M2 bus1=UC1729694.1.2.3.4 phases=3 conn=Delta model=3 kv=0.38 kw=0.6906145 pf=0.92 daily=RU1_DU status=variable vmaxpu=1.5 vminpu=0.92
New Load.BT_1704807_M1 bus1=UC1704807.1.2.3.4 phases=3 conn=Delta model=2 kv=0.38 kw=0.4389895 pf=0.92 daily=RU5_DU status=variable vmaxpu=1.5 vminpu=0.92
New Load.BT_1704807_M2 bus1=UC1704807.1.2.3.4 phases=3 conn=Delta model=3 kv=0.38 kw=0.4389895 pf=0.92 daily=RU5_DU status=variable vmaxpu=1.5 vminpu=0.92
New Load.BT_1730742_M1 bus1=UC1730742.1.4 phases=1 conn=Wye model=2 kv=0.22 kw=0.242359 pf=0.92 daily=RU7_DU status=variable vmaxpu=1.5 vminpu=0.92
New Load.BT_1730742_M2 bus1=UC1730742.1.4 phases=1 conn=Wye model=3 kv=0.22 kw=0.242359 pf=0.92 daily=RU7_DU status=variable vmaxpu=1.5 vminpu=0.92
New Load.BT_1719293_M1 bus1=UC1719293.2.4 phases=1 conn=Wye model=2 kv=0.22 kw=0.1642365 pf=0.92 daily=RU4_DU status=variable vmaxpu=1.5 vminpu=0.92
New Load.BT_1719293_M2 bus1=UC1719293.2.4 phases=1 conn=Wye model=3 kv=0.22 kw=0.1642365 pf=0.92 daily=RU4_DU status=variable vmaxpu=1.5 vminpu=0.92
New Load.BT_1704949_M1 bus1=UC1704949.2.4 phases=1 conn=Wye model=2 kv=0.22 kw=0.3445205 pf=0.92 daily=RU1_DU status=variable vmaxpu=1.5 vminpu=0.92
New Load.BT_1704949_M2 bus1=UC1704949.2.4 phases=1 conn=Wye model=3 kv=0.22 kw=0.3445205 pf=0.92 daily=RU1_DU status=variable vmaxpu=1.5 vminpu=0.92
New Load.BT_1737904_M1 bus1=UC1737904.2.4 phases=1 conn=Wye model=2 kv=0.22 kw=0.148762 pf=0.92 daily=RU8_DU status=variable vmaxpu=1.5 vminpu=0.92
New Load.BT_1737904_M2 bus1=UC1737904.2.4 phases=1 conn=Wye model=3 kv=0.22 kw=0.148762 pf=0.92 daily=RU8_DU status=variable vmaxpu=1.5 vminpu=0.92
...
